Circuit: * C:\Users\BrainW7\Documents\BM Documents\ELECTRONIC\ELECTRONIC DESING\TarjetaTransferElect\1.Basico\Relay Ctrl Industrial\LTSpice\FuenteCapacitivaReal.asc

Warning: Multiple definitions of model "2scr375p" Type: BJT
Warning: Multiple definitions of model "bc857b" Type: BJT
Warning: Multiple definitions of model "bc847c" Type: BJT
Warning: Multiple definitions of model "bc847b" Type: BJT
R1: both pins shorted together -- ignoring.
.OP point found by inspection.

Date: Sun Jun 26 15:45:07 2022
Total elapsed time: 1.590 seconds.

tnom = 27
temp = 27
method = modified trap
totiter = 32952
traniter = 32952
tranpoints = 11766
accept = 7912
rejected = 3854
matrix size = 15
fillins = 14
solver = Normal
Matrix Compiler1: 1.76 KB object code size  3.0/2.4/[1.8]
Matrix Compiler2: 1.45 KB object code size  1.2/2.1/[1.1]

